TWB_D (7)
  xed2sdf           3D
 
 27 28  0  0  0  0  0  0  0  0999 V2000
   21.2722   28.8302   40.7440 C   0  0  0  0  0  0  0  0  0  0  0  0
   22.2054   27.8369   40.6198 C   0  0  0  0  0  0  0  0  0  0  0  0
   23.4774   28.1025   40.1370 C   0  0  0  0  0  0  0  0  0  0  0  0
   25.6069   27.3285   39.6677 C   0  0  0  0  0  0  0  0  0  0  0  0
   26.0385   28.6271   39.2462 C   0  0  0  0  0  0  0  0  0  0  0  0
   25.1670   29.6548   39.2477 C   0  0  0  0  0  0  0  0  0  0  0  0
   25.6963   30.9927   38.7698 C   0  0  0  0  0  0  0  0  0  0  0  0
   23.8162   29.4041   39.7595 C   0  0  0  0  0  0  0  0  0  0  0  0
   22.8538   30.4111   39.9085 C   0  0  0  0  0  0  0  0  0  0  0  0
   21.6048   30.1234   40.3891 C   0  0  0  0  0  0  0  0  0  0  0  0
   24.3428   27.0547   40.0652 O   0  0  0  0  0  0  0  0  0  0  0  0
   25.9959   30.2542   36.1455 O   0  5  0  0  0  0  0  0  0  0  0  0
   25.6993   32.7371   36.6483 O   0  5  0  0  0  0  0  0  0  0  0  0
   23.7213   31.1330   36.8685 O   0  0  0  0  0  0  0  0  0  0  0  0
   25.3226   31.3124   36.9909 P   0  0  0  0  0  0  0  0  0  0  0  0
   19.8876   28.5246   41.2789 C   0  0  0  0  0  0  0  0  0  0  0  0
   26.4637   26.4505   39.6336 O   0  0  0  0  0  0  0  0  0  0  0  0
   23.1255   31.6834   39.5978 F   0  0  0  0  0  0  0  0  0  0  0  0
   21.9653   26.9023   40.8823 H   0  0  0  0  0  0  0  0  0  0  0  0
   26.9833   28.7710   38.9523 H   0  0  0  0  0  0  0  0  0  0  0  0
   26.6877   31.0107   38.8992 H   0  0  0  0  0  0  0  0  0  0  0  0
   25.2426   31.7050   39.3052 H   0  0  0  0  0  0  0  0  0  0  0  0
   20.9286   30.8539   40.4840 H   0  0  0  0  0  0  0  0  0  0  0  0
   23.2386   31.9366   37.2342 H   0  0  0  0  0  0  0  0  0  0  0  0
   19.3551   29.3705   41.3059 H   0  0  0  0  0  0  0  0  0  0  0  0
   19.4346   27.8603   40.6842 H   0  0  0  0  0  0  0  0  0  0  0  0
   19.9595   28.1411   42.1996 H   0  0  0  0  0  0  0  0  0  0  0  0
  2  1  2  0
  3  2  1  0
  5  4  1  0
  6  5  2  0
  7  6  1  0
  8  3  2  0
  8  6  1  0
  9  8  1  0
 10  1  1  0
 10  9  2  0
 11  3  1  0
 11  4  1  0
 15  7  1  0
 15 12  1  0
 15 13  1  0
 15 14  1  0
 16  1  1  0
 17  4  2  0
 18  9  1  0
  2 19  1  0
  5 20  1  0
  7 21  1  0
  7 22  1  0
 10 23  1  0
 14 24  1  0
 16 25  1  0
 16 26  1  0
 16 27  1  0
M  CHG  2  12  -1  13  -1
M  END
>  <BioMolTech Lead Finder dG>
-8.407

>  <BioMolTech Lead Finder VSscore>
-15.765

>  <BioMolTech Lead Finder Rank score>
-14.82

>  <BioMolTech Lead Finder LE>
-0.467

>  <BioMolTech Lead Finder Structure Name>
/var/folders/s3/bsl1r71j5vv92phr7p9f9skw0000gn/T/LeadFinder_54626_1/Ligand_1.sdf

>  <BioMolTech Lead Finder SDF id>
0

>  <BioMolTech Lead Finder Pose rank>
0

>  <BioMolTech Lead Finder version>
2104 1, 18 April 2021

>  <LF dG>
-8.407

>  <LF VSscore>
-15.765

>  <LF Rank Score>
-14.82

>  <LF LE>
-0.467

>  <Preferred Pose_cresset>
true

>  <Favorite_cresset>
false

>  <Protein_cresset>
vim2_solv.gromacs

>  <MW_cresset>
271.2

>  <#Atoms_cresset>
18

>  <SlogP_cresset>
1.8

>  <TPSA_cresset>
92.6

>  <Flexibility_cresset>
3

>  <#RB_cresset>
3

>  <Rof5_cresset>
0

>  <Filename_cresset>
ligand_10.sdf

>  <Confs_cresset>
0

>  <Poses_cresset>
8

>  <Activity (Primary)_cresset>
No Primary Activity Set

>  <_cresset_fieldpoints2>
 2
    -5      28.169224      26.150185      39.143135    -15.0318
    -5      23.088078      29.578335      35.948181    -12.3187
    -5      26.259565      24.713638      40.040146    -15.4251
    -5      26.459114      34.347046      35.944221     -8.8650
    -5      26.653683      28.839748      35.036259    -10.3588
    -6      20.503674      25.556229      41.704414      2.9731
    -6      28.163094      30.290558      40.301434      3.6179
    -6      26.063274      31.354771      41.550495      3.5765
    -6      22.298069      33.592896      37.425613      6.6107
    -6      19.123283      31.738636      40.942497      3.6503
    -7      23.747425      29.833305      43.146408     -2.0756
    -7      20.224087      25.309282      41.733849     -1.3753
    -7      25.731968      30.591534      42.078865     -2.2417
    -7      24.259016      28.145433      36.740837     -2.8035
    -7      24.739536      34.283401      38.420254     -1.7086
    -7      28.218548      29.561951      36.908730     -1.7853
    -7      22.641209      29.023560      36.801331     -2.7672
    -8      22.520992      29.152924      40.257931      7.0795
    -8      24.178886      30.488882      39.466862      5.8312
    -8      25.112141      29.805428      39.281937      5.4825
    -8      24.828182      28.934092      39.561188      5.4396

$$$$
