TWB_D (2)
  xed2sdf           3D
 
 31 32  0  0  0  0  0  0  0  0999 V2000
   21.2805   28.6938   40.7991 C   0  0  0  0  0  0  0  0  0  0  0  0
   22.2061   27.7106   40.5887 C   0  0  0  0  0  0  0  0  0  0  0  0
   23.4567   28.0037   40.0743 C   0  0  0  0  0  0  0  0  0  0  0  0
   25.5521   27.2153   39.4909 C   0  0  0  0  0  0  0  0  0  0  0  0
   25.9890   28.5228   39.1168 C   0  0  0  0  0  0  0  0  0  0  0  0
   25.1392   29.5678   39.2037 C   0  0  0  0  0  0  0  0  0  0  0  0
   25.7503   30.8824   38.7485 C   0  0  0  0  0  0  0  0  0  0  0  0
   23.7943   29.3247   39.7505 C   0  0  0  0  0  0  0  0  0  0  0  0
   22.8374   30.3367   39.9798 C   0  0  0  0  0  0  0  0  0  0  0  0
   21.6035   29.9986   40.4974 C   0  0  0  0  0  0  0  0  0  0  0  0
   24.2995   26.9469   39.9192 O   0  0  0  0  0  0  0  0  0  0  0  0
   25.9621   30.2831   36.0790 O   0  5  0  0  0  0  0  0  0  0  0  0
   25.6986   32.7394   36.7231 O   0  5  0  0  0  0  0  0  0  0  0  0
   23.7195   31.1382   36.9403 O   0  0  0  0  0  0  0  0  0  0  0  0
   25.3262   31.2993   37.0021 P   0  0  0  0  0  0  0  0  0  0  0  0
   19.9145   28.3634   41.3663 C   0  0  0  0  0  0  0  0  0  0  0  0
   26.3925   26.3270   39.3859 O   0  0  0  0  0  0  0  0  0  0  0  0
   23.1340   31.6105   39.6992 O   0  0  0  0  0  0  0  0  0  0  0  0
   23.4445   32.5264   40.7708 C   0  0  0  0  0  0  0  0  0  0  0  0
   21.9755   26.7631   40.8105 H   0  0  0  0  0  0  0  0  0  0  0  0
   26.9240   28.6639   38.7911 H   0  0  0  0  0  0  0  0  0  0  0  0
   26.7447   30.8201   38.8325 H   0  0  0  0  0  0  0  0  0  0  0  0
   25.3763   31.6053   39.3290 H   0  0  0  0  0  0  0  0  0  0  0  0
   20.9276   30.7181   40.6575 H   0  0  0  0  0  0  0  0  0  0  0  0
   23.2606   31.9590   37.2975 H   0  0  0  0  0  0  0  0  0  0  0  0
   19.3853   29.2073   41.4533 H   0  0  0  0  0  0  0  0  0  0  0  0
   19.4396   27.7294   40.7559 H   0  0  0  0  0  0  0  0  0  0  0  0
   20.0174   27.9351   42.2642 H   0  0  0  0  0  0  0  0  0  0  0  0
   23.3894   32.0386   41.6421 H   0  0  0  0  0  0  0  0  0  0  0  0
   24.3674   32.8911   40.6467 H   0  0  0  0  0  0  0  0  0  0  0  0
   22.7918   33.2840   40.7660 H   0  0  0  0  0  0  0  0  0  0  0  0
  2  1  2  0
  3  2  1  0
  5  4  1  0
  6  5  2  0
  7  6  1  0
  8  3  2  0
  8  6  1  0
  9  8  1  0
 10  1  1  0
 10  9  2  0
 11  3  1  0
 11  4  1  0
 15  7  1  0
 15 12  1  0
 15 13  1  0
 15 14  1  0
 16  1  1  0
 17  4  2  0
 18  9  1  0
 19 18  1  0
  2 20  1  0
  5 21  1  0
  7 22  1  0
  7 23  1  0
 10 24  1  0
 14 25  1  0
 16 26  1  0
 16 27  1  0
 16 28  1  0
 19 29  1  0
 19 30  1  0
 19 31  1  0
M  CHG  2  12  -1  13  -1
M  END
>  <BioMolTech Lead Finder dG>
-8.359

>  <BioMolTech Lead Finder VSscore>
-15.838

>  <BioMolTech Lead Finder Rank score>
-15.526

>  <BioMolTech Lead Finder LE>
-0.44

>  <BioMolTech Lead Finder Structure Name>
/var/folders/s3/bsl1r71j5vv92phr7p9f9skw0000gn/T/LeadFinder_54621_1/Ligand_1.sdf

>  <BioMolTech Lead Finder SDF id>
0

>  <BioMolTech Lead Finder Pose rank>
0

>  <BioMolTech Lead Finder version>
2104 1, 18 April 2021

>  <LF dG>
-8.359

>  <LF VSscore>
-15.838

>  <LF Rank Score>
-15.526

>  <LF LE>
-0.44

>  <Preferred Pose_cresset>
true

>  <Favorite_cresset>
false

>  <Protein_cresset>
vim2_solv.gromacs

>  <MW_cresset>
283.2

>  <#Atoms_cresset>
19

>  <SlogP_cresset>
1.4

>  <TPSA_cresset>
101.9

>  <Flexibility_cresset>
3.5

>  <#RB_cresset>
4

>  <Rof5_cresset>
0

>  <Filename_cresset>
ligand_7.sdf

>  <Confs_cresset>
0

>  <Poses_cresset>
10

>  <Activity (Primary)_cresset>
No Primary Activity Set

>  <_cresset_fieldpoints2>
 2
    -5      22.871069      29.466637      36.551521    -13.3653
    -5      26.149759      24.581465      39.719025    -15.6301
    -5      28.071886      26.034679      38.819275    -15.1998
    -5      26.465641      34.353329      36.036331     -8.7818
    -5      26.549963      28.889549      34.905655    -10.5140
    -6      20.538286      25.378365      41.659943      2.6663
    -6      22.743088      33.737450      37.781582      6.1777
    -6      20.596588      32.495453      41.823341      4.1131
    -6      26.165787      31.576679      41.521606      4.9755
    -7      20.266899      25.129099      41.654846     -1.3753
    -7      23.890480      34.053986      38.059429     -2.2099
    -7      21.178581      32.424667      37.996002     -1.9963
    -7      28.159798      29.447418      36.743858     -1.7731
    -7      24.134945      28.182682      36.657776     -2.7678
    -7      23.949631      29.804802      43.087135     -2.3818
    -7      24.745434      25.569489      41.910645     -1.5301
    -7      25.756153      30.529493      42.044052     -2.6251
    -8      22.505543      29.007015      40.297882      6.9076
    -8      25.245686      29.645212      39.198769      5.3465
    -8      24.812771      28.805786      39.494431      5.3733
    -8      21.268497      28.703575      40.806705      5.6436
    -8      23.648333      33.023998      41.440807      2.5660

$$$$
