TWB_D (1)
  xed2sdf           3D
 
 30 31  0  0  0  0  0  0  0  0999 V2000
   21.1654   29.3986   40.4328 C   0  0  0  0  0  0  0  0  0  0  0  0
   22.1740   28.4884   40.6053 C   0  0  0  0  0  0  0  0  0  0  0  0
   23.4740   28.7663   40.2118 C   0  0  0  0  0  0  0  0  0  0  0  0
   25.6982   28.1374   40.0947 C   0  0  0  0  0  0  0  0  0  0  0  0
   26.0688   29.3807   39.4821 C   0  0  0  0  0  0  0  0  0  0  0  0
   25.1222   30.2997   39.2151 C   0  0  0  0  0  0  0  0  0  0  0  0
   25.5218   31.6162   38.5811 C   0  0  0  0  0  0  0  0  0  0  0  0
   23.7511   29.9974   39.6229 C   0  0  0  0  0  0  0  0  0  0  0  0
   22.7175   30.9168   39.4546 C   0  0  0  0  0  0  0  0  0  0  0  0
   21.4405   30.6287   39.8475 C   0  0  0  0  0  0  0  0  0  0  0  0
   24.4247   27.8162   40.4282 O   0  0  0  0  0  0  0  0  0  0  0  0
   25.7658   30.1586   36.2689 O   0  5  0  0  0  0  0  0  0  0  0  0
   26.4483   32.6168   36.1991 O   0  5  0  0  0  0  0  0  0  0  0  0
   23.9820   31.9768   36.3419 O   0  0  0  0  0  0  0  0  0  0  0  0
   25.4953   31.5714   36.7368 P   0  0  0  0  0  0  0  0  0  0  0  0
   19.7712   29.0155   40.8970 C   0  0  0  0  0  0  0  0  0  0  0  0
   26.6223   27.3561   40.2987 O   0  0  0  0  0  0  0  0  0  0  0  0
   20.3797   31.6933   39.6244 C   0  0  0  0  0  0  0  0  0  0  0  0
   21.9683   27.6040   41.0243 H   0  0  0  0  0  0  0  0  0  0  0  0
   27.0252   29.5639   39.2553 H   0  0  0  0  0  0  0  0  0  0  0  0
   26.4465   31.8482   38.8826 H   0  0  0  0  0  0  0  0  0  0  0  0
   24.8524   32.3004   38.8703 H   0  0  0  0  0  0  0  0  0  0  0  0
   22.9140   31.8045   39.0383 H   0  0  0  0  0  0  0  0  0  0  0  0
   23.5856   32.6013   37.0237 H   0  0  0  0  0  0  0  0  0  0  0  0
   19.1458   29.7724   40.7082 H   0  0  0  0  0  0  0  0  0  0  0  0
   19.4660   28.1969   40.4102 H   0  0  0  0  0  0  0  0  0  0  0  0
   19.7840   28.8245   41.8785 H   0  0  0  0  0  0  0  0  0  0  0  0
   20.8045   32.4917   39.1976 H   0  0  0  0  0  0  0  0  0  0  0  0
   19.6616   31.3348   39.0279 H   0  0  0  0  0  0  0  0  0  0  0  0
   19.9750   31.9542   40.5006 H   0  0  0  0  0  0  0  0  0  0  0  0
  2  1  2  0
  3  2  1  0
  5  4  1  0
  6  5  2  0
  7  6  1  0
  8  3  2  0
  8  6  1  0
  9  8  1  0
 10  1  1  0
 10  9  2  0
 11  3  1  0
 11  4  1  0
 15  7  1  0
 15 12  1  0
 15 13  1  0
 15 14  1  0
 16  1  1  0
 17  4  2  0
 18 10  1  0
  2 19  1  0
  5 20  1  0
  7 21  1  0
  7 22  1  0
  9 23  1  0
 14 24  1  0
 16 25  1  0
 16 26  1  0
 16 27  1  0
 18 28  1  0
 18 29  1  0
 18 30  1  0
M  CHG  2  12  -1  13  -1
M  END
>  <BioMolTech Lead Finder dG>
-8.715

>  <BioMolTech Lead Finder VSscore>
-16.507

>  <BioMolTech Lead Finder Rank score>
-15.899

>  <BioMolTech Lead Finder LE>
-0.484

>  <BioMolTech Lead Finder Structure Name>
/var/folders/s3/bsl1r71j5vv92phr7p9f9skw0000gn/T/LeadFinder_54620_1/Ligand_1.sdf

>  <BioMolTech Lead Finder SDF id>
0

>  <BioMolTech Lead Finder Pose rank>
0

>  <BioMolTech Lead Finder version>
2104 1, 18 April 2021

>  <LF dG>
-8.715

>  <LF VSscore>
-16.507

>  <LF Rank Score>
-15.899

>  <LF LE>
-0.484

>  <Preferred Pose_cresset>
true

>  <Favorite_cresset>
false

>  <Protein_cresset>
vim2_solv.gromacs

>  <MW_cresset>
267.2

>  <#Atoms_cresset>
18

>  <SlogP_cresset>
1.7

>  <TPSA_cresset>
92.6

>  <Flexibility_cresset>
3

>  <#RB_cresset>
3

>  <Rof5_cresset>
0

>  <Filename_cresset>
ligand_1.sdf

>  <Confs_cresset>
0

>  <Poses_cresset>
10

>  <Activity (Primary)_cresset>
No Primary Activity Set

>  <_cresset_fieldpoints2>
 2
    -5      28.390312      27.119511      40.035423    -14.8640
    -5      26.502960      25.707409      41.003796    -15.3433
    -5      26.067701      28.318108      35.837982    -10.6263
    -5      23.116997      30.787327      35.116337    -11.9732
    -5      22.384493      30.801758      42.852104     -2.0650
    -5      27.720306      33.673653      35.234718     -9.2914
    -6      23.240772      33.713142      38.490318     13.6646
    -6      17.486404      31.426723      40.544182      2.4559
    -6      28.023811      31.365517      40.250664      3.8727
    -6      20.588223      26.262012      41.967636      2.7569
    -7      20.338692      26.021969      42.069580     -1.3771
    -7      22.965361      34.126240      38.547600     -2.2088
    -7      17.221899      31.414974      40.397888     -1.3271
    -7      24.625645      28.173744      37.020927     -2.7729
    -7      22.953785      31.060444      42.885796     -2.0916
    -7      25.655205      30.919037      42.118938     -2.1461
    -7      24.275095      31.294596      42.504311     -1.9403
    -8      22.430775      29.728500      40.023666      7.0867
    -8      24.226200      30.923645      39.162388      5.6154
    -8      25.009691      30.458420      39.220131      5.4810
    -8      24.805523      29.610573      39.621017      5.4415
    -8      20.480423      30.294676      40.196877      5.7356

$$$$
