TWB_D (10)
  xed2sdf           3D
 
 31 32  0  0  0  0  0  0  0  0999 V2000
   21.4192   28.4160   40.9871 C   0  0  0  0  0  0  0  0  0  0  0  0
   22.3703   27.4872   40.6906 C   0  0  0  0  0  0  0  0  0  0  0  0
   23.5819   27.8732   40.1324 C   0  0  0  0  0  0  0  0  0  0  0  0
   25.7563   27.1517   39.3878 C   0  0  0  0  0  0  0  0  0  0  0  0
   26.0698   28.5122   39.0596 C   0  0  0  0  0  0  0  0  0  0  0  0
   25.1668   29.5091   39.2390 C   0  0  0  0  0  0  0  0  0  0  0  0
   25.6923   30.8589   38.7906 C   0  0  0  0  0  0  0  0  0  0  0  0
   23.8532   29.2141   39.8463 C   0  0  0  0  0  0  0  0  0  0  0  0
   22.8621   30.1586   40.1796 C   0  0  0  0  0  0  0  0  0  0  0  0
   21.6789   29.7521   40.7335 C   0  0  0  0  0  0  0  0  0  0  0  0
   24.5344   26.9023   39.8758 N   0  0  0  0  0  0  0  0  0  0  0  0
   25.9563   30.1137   36.1656 O   0  5  0  0  0  0  0  0  0  0  0  0
   25.7483   32.6057   36.6685 O   0  5  0  0  0  0  0  0  0  0  0  0
   23.7168   31.0669   36.9013 O   0  0  0  0  0  0  0  0  0  0  0  0
   25.3242   31.1949   37.0135 P   0  0  0  0  0  0  0  0  0  0  0  0
   20.1006   27.9974   41.6061 C   0  0  0  0  0  0  0  0  0  0  0  0
   26.6093   26.2871   39.1981 O   0  0  0  0  0  0  0  0  0  0  0  0
   22.9578   31.6701   40.0237 C   0  0  0  0  0  0  0  0  0  0  0  0
   22.1949   26.5203   40.8763 H   0  0  0  0  0  0  0  0  0  0  0  0
   26.9731   28.7310   38.6910 H   0  0  0  0  0  0  0  0  0  0  0  0
   26.6828   30.8819   38.9268 H   0  0  0  0  0  0  0  0  0  0  0  0
   25.2360   31.5621   39.3357 H   0  0  0  0  0  0  0  0  0  0  0  0
   20.9854   30.4359   40.9604 H   0  0  0  0  0  0  0  0  0  0  0  0
   24.3318   26.0633   40.0542 H   0  0  0  0  0  0  0  0  0  0  0  0
   23.2628   31.8931   37.2523 H   0  0  0  0  0  0  0  0  0  0  0  0
   19.5421   28.8116   41.7642 H   0  0  0  0  0  0  0  0  0  0  0  0
   19.6204   27.3742   40.9888 H   0  0  0  0  0  0  0  0  0  0  0  0
   20.2694   27.5299   42.4739 H   0  0  0  0  0  0  0  0  0  0  0  0
   22.1152   32.0865   40.3650 H   0  0  0  0  0  0  0  0  0  0  0  0
   23.7389   32.0147   40.5444 H   0  0  0  0  0  0  0  0  0  0  0  0
   23.0822   31.9018   39.0589 H   0  0  0  0  0  0  0  0  0  0  0  0
  2  1  2  0
  3  2  1  0
  5  4  1  0
  6  5  2  0
  7  6  1  0
  8  3  2  0
  8  6  1  0
  9  8  1  0
 10  1  1  0
 10  9  2  0
 11  3  1  0
 11  4  1  0
 15  7  1  0
 15 12  1  0
 15 13  1  0
 15 14  1  0
 16  1  1  0
 17  4  2  0
 18  9  1  0
  2 19  1  0
  5 20  1  0
  7 21  1  0
  7 22  1  0
 10 23  1  0
 11 24  1  0
 14 25  1  0
 16 26  1  0
 16 27  1  0
 16 28  1  0
 18 29  1  0
 18 30  1  0
 18 31  1  0
M  CHG  2  12  -1  13  -1
M  END
>  <BioMolTech Lead Finder dG>
-8.379

>  <BioMolTech Lead Finder VSscore>
-15.821

>  <BioMolTech Lead Finder Rank score>
-15.21

>  <BioMolTech Lead Finder LE>
-0.465

>  <BioMolTech Lead Finder Structure Name>
/var/folders/s3/bsl1r71j5vv92phr7p9f9skw0000gn/T/LeadFinder_54621_1/Ligand_1.sdf

>  <BioMolTech Lead Finder SDF id>
0

>  <BioMolTech Lead Finder Pose rank>
0

>  <BioMolTech Lead Finder version>
2104 1, 18 April 2021

>  <LF dG>
-8.379

>  <LF VSscore>
-15.821

>  <LF Rank Score>
-15.21

>  <LF LE>
-0.465

>  <Preferred Pose_cresset>
true

>  <Favorite_cresset>
false

>  <Protein_cresset>
vim2_solv.gromacs

>  <MW_cresset>
266.2

>  <#Atoms_cresset>
18

>  <SlogP_cresset>
1.7

>  <TPSA_cresset>
95.4

>  <Flexibility_cresset>
3

>  <#RB_cresset>
3

>  <Rof5_cresset>
0

>  <Filename_cresset>
ligand_13.sdf

>  <Confs_cresset>
0

>  <Poses_cresset>
8

>  <Activity (Primary)_cresset>
No Primary Activity Set

>  <_cresset_fieldpoints2>
 2
    -5      22.923286      29.330978      36.753006    -13.3407
    -5      23.538231      29.215492      43.173866     -2.7614
    -5      28.234037      26.158703      38.503029    -16.9490
    -5      26.456499      28.427132      35.410561    -10.8967
    -5      26.605324      34.139946      35.909313     -8.6643
    -6      19.869320      32.175446      41.211384      3.3990
    -6      23.212196      24.644053      40.684471      8.0372
    -6      28.449596      30.155468      39.881287      2.9958
    -6      22.826050      33.674652      37.800358      8.7884
    -7      28.345577      29.743793      36.838821     -1.7089
    -7      24.100506      28.074352      36.741310     -2.8901
    -7      24.521824      34.077335      38.468987     -2.0380
    -7      20.620308      24.769781      41.712547     -1.3893
    -7      22.311922      29.198223      37.023224     -2.8061
    -7      25.696266      30.738943      42.071781     -2.3785
    -7      24.085125      29.373547      43.235802     -2.1096
    -8      22.608877      28.847324      40.437378      7.0775
    -8      24.018669      30.425941      39.678474      5.6265
    -8      25.197969      29.645866      39.242290      5.4318
    -8      24.867561      28.803787      39.501884      5.3304

$$$$
