TWB_D
  xed2sdf           3D
 
 28 29  0  0  0  0  0  0  0  0999 V2000
   21.0668   29.1284   40.3758 C   0  0  0  0  0  0  0  0  0  0  0  0
   22.0705   28.1829   40.4217 C   0  0  0  0  0  0  0  0  0  0  0  0
   23.3555   28.4685   39.9924 C   0  0  0  0  0  0  0  0  0  0  0  0
   25.5523   27.7993   39.7021 C   0  0  0  0  0  0  0  0  0  0  0  0
   25.9286   29.0820   39.1882 C   0  0  0  0  0  0  0  0  0  0  0  0
   24.9968   30.0468   39.0560 C   0  0  0  0  0  0  0  0  0  0  0  0
   25.4061   31.4088   38.5345 C   0  0  0  0  0  0  0  0  0  0  0  0
   23.6405   29.7419   39.4987 C   0  0  0  0  0  0  0  0  0  0  0  0
   22.6240   30.6966   39.4579 C   0  0  0  0  0  0  0  0  0  0  0  0
   21.3654   30.3951   39.8851 C   0  0  0  0  0  0  0  0  0  0  0  0
   24.2896   27.4823   40.0796 O   0  0  0  0  0  0  0  0  0  0  0  0
   25.8874   30.1381   36.1513 O   0  5  0  0  0  0  0  0  0  0  0  0
   26.3687   32.6402   36.2776 O   0  5  0  0  0  0  0  0  0  0  0  0
   23.9589   31.8019   36.2424 O   0  0  0  0  0  0  0  0  0  0  0  0
   25.4784   31.4896   36.6932 P   0  0  0  0  0  0  0  0  0  0  0  0
   19.8189   28.8819   40.7839 O   0  0  0  0  0  0  0  0  0  0  0  0
   26.4619   26.9786   39.7789 O   0  0  0  0  0  0  0  0  0  0  0  0
   19.5811   28.6085   42.1801 C   0  0  0  0  0  0  0  0  0  0  0  0
   21.8651   27.2696   40.7734 H   0  0  0  0  0  0  0  0  0  0  0  0
   26.8776   29.2611   38.9293 H   0  0  0  0  0  0  0  0  0  0  0  0
   26.3093   31.6327   38.9006 H   0  0  0  0  0  0  0  0  0  0  0  0
   24.7102   32.0622   38.8324 H   0  0  0  0  0  0  0  0  0  0  0  0
   22.8214   31.6134   39.1108 H   0  0  0  0  0  0  0  0  0  0  0  0
   20.6491   31.0918   39.8455 H   0  0  0  0  0  0  0  0  0  0  0  0
   23.5220   32.4529   36.8727 H   0  0  0  0  0  0  0  0  0  0  0  0
   20.4508   28.6470   42.6721 H   0  0  0  0  0  0  0  0  0  0  0  0
   18.9517   29.2890   42.5551 H   0  0  0  0  0  0  0  0  0  0  0  0
   19.1759   27.6998   42.2811 H   0  0  0  0  0  0  0  0  0  0  0  0
  2  1  2  0
  3  2  1  0
  5  4  1  0
  6  5  2  0
  7  6  1  0
  8  3  2  0
  8  6  1  0
  9  8  1  0
 10  1  1  0
 10  9  2  0
 11  3  1  0
 11  4  1  0
 15  7  1  0
 15 12  1  0
 15 13  1  0
 15 14  1  0
 16  1  1  0
 17  4  2  0
 18 16  1  0
  2 19  1  0
  5 20  1  0
  7 21  1  0
  7 22  1  0
  9 23  1  0
 10 24  1  0
 14 25  1  0
 18 26  1  0
 18 27  1  0
 18 28  1  0
M  CHG  2  12  -1  13  -1
M  END
>  <BioMolTech Lead Finder dG>
-8.358

>  <BioMolTech Lead Finder VSscore>
-16.003

>  <BioMolTech Lead Finder Rank score>
-15.315

>  <BioMolTech Lead Finder LE>
-0.464

>  <BioMolTech Lead Finder Structure Name>
/var/folders/s3/bsl1r71j5vv92phr7p9f9skw0000gn/T/LeadFinder_54623_1/Ligand_1.sdf

>  <BioMolTech Lead Finder SDF id>
0

>  <BioMolTech Lead Finder Pose rank>
0

>  <BioMolTech Lead Finder version>
2104 1, 18 April 2021

>  <LF dG>
-8.358

>  <LF VSscore>
-16.003

>  <LF Rank Score>
-15.315

>  <LF LE>
-0.464

>  <Preferred Pose_cresset>
true

>  <Favorite_cresset>
false

>  <Protein_cresset>
vim2_solv.gromacs

>  <MW_cresset>
269.2

>  <#Atoms_cresset>
18

>  <SlogP_cresset>
1.1

>  <TPSA_cresset>
101.9

>  <Flexibility_cresset>
3.5

>  <#RB_cresset>
4

>  <Rof5_cresset>
0

>  <Filename_cresset>
ligand_2.sdf

>  <Confs_cresset>
0

>  <Poses_cresset>
10

>  <Activity (Primary)_cresset>
No Primary Activity Set

>  <_cresset_fieldpoints2>
 2
    -5      18.317886      28.552486      39.300095     -5.3499
    -5      23.231564      30.612785      34.930134    -12.0181
    -5      26.343693      25.271942      40.315102    -15.5354
    -5      28.195011      26.768269      39.347694    -15.2386
    -5      26.298567      28.306900      35.773731    -10.7815
    -5      27.634422      33.805824      35.438431     -9.1750
    -6      23.149277      33.484253      38.402428     13.4813
    -6      27.986500      30.943863      40.043247      3.6212
    -6      22.201519      29.580879      43.720291      2.3631
    -6      21.220905      26.191772      42.523193      3.5474
    -7      19.466167      26.094034      39.999977     -1.5929
    -7      28.580261      30.622528      37.617962     -1.6097
    -7      23.048950      33.961586      38.450539     -1.8405
    -7      25.704857      30.349846      41.975204     -2.1418
    -7      18.190437      31.224476      40.669044     -1.5874
    -7      24.407505      28.213486      36.660732     -2.7694
    -7      22.785282      30.228888      43.057251     -2.1758
    -8      22.372749      29.469296      39.925491      6.9090
    -8      24.121567      30.692436      39.103130      5.6067
    -8      24.886868      30.204872      39.080711      5.4782
    -8      24.683601      29.334221      39.408150      5.4360
    -8      19.497223      28.437508      43.026299      2.5415

$$$$
