TWB_D (11)
  xed2sdf           3D
 
 24 25  0  0  0  0  0  0  0  0999 V2000
   25.2675   26.7437   40.0087 C   0  0  0  0  0  0  0  0  0  0  0  0
   23.9792   27.1335   40.1656 C   0  0  0  0  0  0  0  0  0  0  0  0
   23.6376   28.4438   39.8519 C   0  0  0  0  0  0  0  0  0  0  0  0
   22.0104   30.1809   39.6851 C   0  0  0  0  0  0  0  0  0  0  0  0
   23.0074   31.0553   39.2154 C   0  0  0  0  0  0  0  0  0  0  0  0
   24.2837   30.6362   39.0666 C   0  0  0  0  0  0  0  0  0  0  0  0
   25.3231   31.6181   38.5579 C   0  0  0  0  0  0  0  0  0  0  0  0
   24.6434   29.3048   39.3853 C   0  0  0  0  0  0  0  0  0  0  0  0
   25.9435   28.9202   39.2250 N   0  0  0  0  0  0  0  0  0  0  0  0
   26.2121   27.6503   39.5426 C   0  0  0  0  0  0  0  0  0  0  0  0
   22.3136   28.9029   39.9969 C   0  0  0  0  0  0  0  0  0  0  0  0
   25.7811   30.2388   36.2329 O   0  5  0  0  0  0  0  0  0  0  0  0
   26.3679   32.7236   36.2721 O   0  5  0  0  0  0  0  0  0  0  0  0
   23.9211   31.9869   36.2580 O   0  0  0  0  0  0  0  0  0  0  0  0
   25.4278   31.6262   36.7207 P   0  0  0  0  0  0  0  0  0  0  0  0
   25.5379   25.8061   40.2275 H   0  0  0  0  0  0  0  0  0  0  0  0
   23.2889   26.4921   40.5002 H   0  0  0  0  0  0  0  0  0  0  0  0
   21.0711   30.5081   39.7885 H   0  0  0  0  0  0  0  0  0  0  0  0
   22.7686   31.9997   38.9889 H   0  0  0  0  0  0  0  0  0  0  0  0
   26.2156   31.3679   38.9330 H   0  0  0  0  0  0  0  0  0  0  0  0
   25.0515   32.5339   38.8534 H   0  0  0  0  0  0  0  0  0  0  0  0
   27.1540   27.3314   39.4383 H   0  0  0  0  0  0  0  0  0  0  0  0
   21.6012   28.2846   40.3295 H   0  0  0  0  0  0  0  0  0  0  0  0
   23.4842   32.6168   36.9095 H   0  0  0  0  0  0  0  0  0  0  0  0
  2  1  2  0
  3  2  1  0
  5  4  1  0
  6  5  2  0
  7  6  1  0
  8  3  2  0
  8  6  1  0
  9  8  1  0
 10  1  1  0
 10  9  2  0
 11  3  1  0
 11  4  2  0
 15  7  1  0
 15 12  1  0
 15 13  1  0
 15 14  1  0
  1 16  1  0
  2 17  1  0
  4 18  1  0
  5 19  1  0
  7 20  1  0
  7 21  1  0
 10 22  1  0
 11 23  1  0
 14 24  1  0
M  CHG  2  12  -1  13  -1
M  END
>  <BioMolTech Lead Finder dG>
-8.215

>  <BioMolTech Lead Finder VSscore>
-15.913

>  <BioMolTech Lead Finder Rank score>
-15.747

>  <BioMolTech Lead Finder LE>
-0.548

>  <BioMolTech Lead Finder Structure Name>
/var/folders/s3/bsl1r71j5vv92phr7p9f9skw0000gn/T/LeadFinder_54625_1/Ligand_1.sdf

>  <BioMolTech Lead Finder SDF id>
0

>  <BioMolTech Lead Finder Pose rank>
0

>  <BioMolTech Lead Finder version>
2104 1, 18 April 2021

>  <LF dG>
-8.215

>  <LF VSscore>
-15.913

>  <LF Rank Score>
-15.747

>  <LF LE>
-0.548

>  <Preferred Pose_cresset>
true

>  <Favorite_cresset>
false

>  <Protein_cresset>
vim2_solv.gromacs

>  <MW_cresset>
222.2

>  <#Atoms_cresset>
15

>  <SlogP_cresset>
1.9

>  <TPSA_cresset>
79.2

>  <Flexibility_cresset>
3

>  <#RB_cresset>
3

>  <Rof5_cresset>
0

>  <Filename_cresset>
ligand_14.sdf

>  <Confs_cresset>
0

>  <Poses_cresset>
8

>  <Activity (Primary)_cresset>
No Primary Activity Set

>  <_cresset_fieldpoints2>
 2
    -5      26.678051      29.076256      37.461311    -16.8782
    -5      27.774364      33.771675      35.505348    -10.0678
    -5      23.109722      30.407761      35.541702    -13.6179
    -6      21.278282      26.258942      41.049080      4.9048
    -6      23.450233      24.454529      41.126320      3.9122
    -6      23.248783      33.881905      38.309929     11.5246
    -6      27.542561      24.926191      40.171921      3.3073
    -7      28.011616      24.752007      40.000397     -0.9113
    -7      23.425953      28.877527      36.352226     -2.7876
    -7      23.707420      23.919754      41.143955     -0.9844
    -7      18.986900      28.843082      40.532349     -0.9980
    -7      26.803608      30.459492      41.478447     -1.9970
    -7      24.356712      30.380371      42.532486     -2.1311
    -7      23.335327      34.358963      38.276737     -1.8581
    -7      27.896927      29.621174      37.634762     -2.2488
    -7      27.207424      34.235046      38.075897     -1.3698
    -8      23.294762      29.751888      39.538467      7.0249
    -8      24.586506      27.769501      39.855343      5.6293

$$$$
