TWB_D (13)
  xed2sdf           3D
 
 29 30  0  0  0  0  0  0  0  0999 V2000
   23.1832   26.5829   39.6969 C   0  0  0  0  0  0  0  0  0  0  0  0
   22.3066   27.5988   39.9282 C   0  0  0  0  0  0  0  0  0  0  0  0
   22.6851   28.9167   39.7055 C   0  0  0  0  0  0  0  0  0  0  0  0
   22.0038   31.2264   39.7522 C   0  0  0  0  0  0  0  0  0  0  0  0
   23.3039   31.5956   39.2719 C   0  0  0  0  0  0  0  0  0  0  0  0
   24.2600   30.6638   39.0309 C   0  0  0  0  0  0  0  0  0  0  0  0
   25.5495   31.2521   38.4951 C   0  0  0  0  0  0  0  0  0  0  0  0
   23.9656   29.2340   39.2436 C   0  0  0  0  0  0  0  0  0  0  0  0
   24.8519   28.1646   39.0154 C   0  0  0  0  0  0  0  0  0  0  0  0
   24.4561   26.8760   39.2398 C   0  0  0  0  0  0  0  0  0  0  0  0
   21.7659   29.9232   39.9469 N   0  0  0  0  0  0  0  0  0  0  0  0
   26.4461   32.5956   36.2697 O   0  5  0  0  0  0  0  0  0  0  0  0
   25.9106   30.1154   36.0231 O   0  5  0  0  0  0  0  0  0  0  0  0
   24.0210   31.8003   36.2733 O   0  0  0  0  0  0  0  0  0  0  0  0
   25.5489   31.4402   36.6568 P   0  0  0  0  0  0  0  0  0  0  0  0
   22.7543   25.0940   39.9468 B   0  0  0  0  0  0  0  0  0  0  0  0
   21.1781   32.1139   39.9565 O   0  0  0  0  0  0  0  0  0  0  0  0
   26.3454   28.2365   38.5107 B   0  0  0  0  0  0  0  0  0  0  0  0
   21.3856   27.3951   40.2602 H   0  0  0  0  0  0  0  0  0  0  0  0
   23.5100   32.5610   39.1116 H   0  0  0  0  0  0  0  0  0  0  0  0
   26.3070   30.6537   38.7562 H   0  0  0  0  0  0  0  0  0  0  0  0
   25.6464   32.1664   38.8879 H   0  0  0  0  0  0  0  0  0  0  0  0
   25.0994   26.1294   39.0701 H   0  0  0  0  0  0  0  0  0  0  0  0
   20.9689   29.6966   40.2472 H   0  0  0  0  0  0  0  0  0  0  0  0
   23.6594   32.5237   36.8716 H   0  0  0  0  0  0  0  0  0  0  0  0
   23.4021   24.3515   39.7758 H   0  0  0  0  0  0  0  0  0  0  0  0
   21.8334   24.8876   40.2771 H   0  0  0  0  0  0  0  0  0  0  0  0
   26.8746   27.3961   38.3935 H   0  0  0  0  0  0  0  0  0  0  0  0
   26.7627   29.1223   38.3078 H   0  0  0  0  0  0  0  0  0  0  0  0
  2  1  2  0
  3  2  1  0
  5  4  1  0
  6  5  2  0
  7  6  1  0
  8  3  2  0
  8  6  1  0
  9  8  1  0
 10  1  1  0
 10  9  2  0
 11  3  1  0
 11  4  1  0
 15  7  1  0
 15 12  1  0
 15 13  1  0
 15 14  1  0
 16  1  1  0
 17  4  2  0
 18  9  1  0
  2 19  1  0
  5 20  1  0
  7 21  1  0
  7 22  1  0
 10 23  1  0
 11 24  1  0
 14 25  1  0
 16 26  1  0
 16 27  1  0
 18 28  1  0
 18 29  1  0
M  CHG  2  12  -1  13  -1
M  END
>  <BioMolTech Lead Finder dG>
-8.849

>  <BioMolTech Lead Finder VSscore>
-17.246

>  <BioMolTech Lead Finder Rank score>
-15.809

>  <BioMolTech Lead Finder LE>
-0.492

>  <BioMolTech Lead Finder Structure Name>
/var/folders/s3/bsl1r71j5vv92phr7p9f9skw0000gn/T/LeadFinder_54622_1/Ligand_1.sdf

>  <BioMolTech Lead Finder SDF id>
0

>  <BioMolTech Lead Finder Pose rank>
0

>  <BioMolTech Lead Finder version>
2104 1, 18 April 2021

>  <LF dG>
-8.849

>  <LF VSscore>
-17.246

>  <LF Rank Score>
-15.809

>  <LF LE>
-0.492

>  <Preferred Pose_cresset>
true

>  <Favorite_cresset>
false

>  <Protein_cresset>
vim2_solv.gromacs

>  <MW_cresset>
261.8

>  <#Atoms_cresset>
18

>  <SlogP_cresset>
-0.7

>  <TPSA_cresset>
95.4

>  <Flexibility_cresset>
5

>  <#RB_cresset>
5

>  <Rof5_cresset>
0

>  <Filename_cresset>
ligand_16.sdf

>  <Confs_cresset>
0

>  <Poses_cresset>
9

>  <Activity (Primary)_cresset>
No Primary Activity Set

>  <_cresset_fieldpoints2>
 2
    -5      23.076706      30.436623      35.317398    -12.8103
    -5      24.630638      27.857529      42.226227     -2.3767
    -5      25.955658      28.465027      35.057159    -10.1746
    -5      27.712894      33.793381      35.478897     -9.1966
    -5      20.781216      33.860497      39.990952    -15.6148
    -6      19.622639      28.475885      40.849167      8.1797
    -6      27.397472      29.886488      40.497269      3.4354
    -6      23.082651      24.288769      42.173313      1.7452
    -6      21.668999      23.891172      38.167603      1.5808
    -6      26.006248      24.247829      39.113457      2.3074
    -6      24.326241      33.970798      37.932838     10.2540
    -6      26.879074      31.890594      40.865204      3.3966
    -7      22.157356      30.415062      36.711388     -3.0131
    -7      24.614216      34.452965      37.776855     -1.8105
    -7      28.694389      30.451649      37.303818     -1.4544
    -7      25.750351      27.808563      35.960499     -2.1723
    -7      24.650326      28.480743      42.479988     -1.8530
    -7      28.001472      33.415947      38.035492     -1.3150
    -7      21.820463      24.585941      37.534401     -1.2991
    -7      23.510746      24.931927      42.469566     -1.2984
    -7      24.103672      30.883909      42.117065     -2.1607
    -8      23.595322      27.884491      39.466064      7.0195
    -8      24.380127      30.703051      38.981026      5.4239
    -8      24.967663      29.732487      38.871693      5.3668
    -8      23.566210      30.317326      39.292137      5.3243

$$$$
