TWB_D (5)
  xed2sdf           3D
 
 30 31  0  0  0  0  0  0  0  0999 V2000
   21.4268   28.3440   40.9567 C   0  0  0  0  0  0  0  0  0  0  0  0
   22.3918   27.4288   40.6534 C   0  0  0  0  0  0  0  0  0  0  0  0
   23.6027   27.8181   40.1045 C   0  0  0  0  0  0  0  0  0  0  0  0
   25.7177   27.1748   39.4229 C   0  0  0  0  0  0  0  0  0  0  0  0
   26.0685   28.5215   39.0943 C   0  0  0  0  0  0  0  0  0  0  0  0
   25.1637   29.5087   39.2487 C   0  0  0  0  0  0  0  0  0  0  0  0
   25.6820   30.8612   38.8017 C   0  0  0  0  0  0  0  0  0  0  0  0
   23.8557   29.1700   39.8373 C   0  0  0  0  0  0  0  0  0  0  0  0
   22.8547   30.1015   40.1702 C   0  0  0  0  0  0  0  0  0  0  0  0
   21.6716   29.6816   40.7159 C   0  0  0  0  0  0  0  0  0  0  0  0
   24.4937   26.8178   39.8657 O   0  0  0  0  0  0  0  0  0  0  0  0
   26.0698   30.1228   36.1923 O   0  5  0  0  0  0  0  0  0  0  0  0
   25.6999   32.6012   36.6730 O   0  5  0  0  0  0  0  0  0  0  0  0
   23.7564   30.9455   36.8556 O   0  0  0  0  0  0  0  0  0  0  0  0
   25.3497   31.1692   37.0136 P   0  0  0  0  0  0  0  0  0  0  0  0
   20.1103   27.9060   41.5667 C   0  0  0  0  0  0  0  0  0  0  0  0
   26.6011   26.3395   39.2561 O   0  0  0  0  0  0  0  0  0  0  0  0
   22.9355   31.6148   40.0225 C   0  0  0  0  0  0  0  0  0  0  0  0
   22.2220   26.4593   40.8305 H   0  0  0  0  0  0  0  0  0  0  0  0
   26.9838   28.7309   38.7508 H   0  0  0  0  0  0  0  0  0  0  0  0
   26.6685   30.8995   38.9608 H   0  0  0  0  0  0  0  0  0  0  0  0
   25.2061   31.5646   39.3295 H   0  0  0  0  0  0  0  0  0  0  0  0
   20.9704   30.3569   40.9448 H   0  0  0  0  0  0  0  0  0  0  0  0
   23.2440   31.7424   37.1940 H   0  0  0  0  0  0  0  0  0  0  0  0
   19.5424   28.7128   41.7291 H   0  0  0  0  0  0  0  0  0  0  0  0
   19.6394   27.2827   40.9424 H   0  0  0  0  0  0  0  0  0  0  0  0
   20.2807   27.4333   42.4313 H   0  0  0  0  0  0  0  0  0  0  0  0
   22.0867   32.0208   40.3612 H   0  0  0  0  0  0  0  0  0  0  0  0
   23.7101   31.9648   40.5492 H   0  0  0  0  0  0  0  0  0  0  0  0
   23.0629   31.8527   39.0593 H   0  0  0  0  0  0  0  0  0  0  0  0
  2  1  2  0
  3  2  1  0
  5  4  1  0
  6  5  2  0
  7  6  1  0
  8  3  2  0
  8  6  1  0
  9  8  1  0
 10  1  1  0
 10  9  2  0
 11  3  1  0
 11  4  1  0
 15  7  1  0
 15 12  1  0
 15 13  1  0
 15 14  1  0
 16  1  1  0
 17  4  2  0
 18  9  1  0
  2 19  1  0
  5 20  1  0
  7 21  1  0
  7 22  1  0
 10 23  1  0
 14 24  1  0
 16 25  1  0
 16 26  1  0
 16 27  1  0
 18 28  1  0
 18 29  1  0
 18 30  1  0
M  CHG  2  12  -1  13  -1
M  END
>  <BioMolTech Lead Finder dG>
-8.148

>  <BioMolTech Lead Finder VSscore>
-15.56

>  <BioMolTech Lead Finder Rank score>
-15.144

>  <BioMolTech Lead Finder LE>
-0.453

>  <BioMolTech Lead Finder Structure Name>
/var/folders/s3/bsl1r71j5vv92phr7p9f9skw0000gn/T/LeadFinder_54622_1/Ligand_1.sdf

>  <BioMolTech Lead Finder SDF id>
0

>  <BioMolTech Lead Finder Pose rank>
0

>  <BioMolTech Lead Finder version>
2104 1, 18 April 2021

>  <LF dG>
-8.148

>  <LF VSscore>
-15.56

>  <LF Rank Score>
-15.144

>  <LF LE>
-0.453

>  <Preferred Pose_cresset>
true

>  <Favorite_cresset>
false

>  <Protein_cresset>
vim2_solv.gromacs

>  <MW_cresset>
267.2

>  <#Atoms_cresset>
18

>  <SlogP_cresset>
1.7

>  <TPSA_cresset>
92.6

>  <Flexibility_cresset>
3

>  <#RB_cresset>
3

>  <Rof5_cresset>
0

>  <Filename_cresset>
ligand_6.sdf

>  <Confs_cresset>
0

>  <Poses_cresset>
10

>  <Activity (Primary)_cresset>
No Primary Activity Set

>  <_cresset_fieldpoints2>
 2
    -5      23.390083      29.007017      43.285454     -2.2431
    -5      26.471731      24.566921      39.514389    -15.4394
    -5      26.731209      28.608727      35.225288    -10.5064
    -5      26.473175      34.171108      35.896988     -8.5392
    -5      23.078865      29.194944      36.479286    -12.6808
    -5      28.272400      26.166569      38.610588    -15.0663
    -6      19.844030      32.074112      41.174210      3.7280
    -6      25.914394      32.482803      41.195930      4.4702
    -6      22.634033      33.489479      37.684570      8.9716
    -6      28.200115      30.149586      40.258633      3.5413
    -6      20.904785      24.936653      41.609322      2.6288
    -7      24.063953      29.327190      43.228798     -2.0990
    -7      28.422874      29.801941      36.977913     -1.7174
    -7      24.085793      28.099394      36.715958     -2.8192
    -7      24.456177      34.047440      38.448292     -2.0276
    -7      20.646675      24.685265      41.646290     -1.3756
    -7      25.006287      25.243538      41.667740     -1.5363
    -7      22.204018      29.222389      37.047386     -2.7921
    -7      25.670296      30.712872      42.083363     -2.3837
    -8      25.181431      29.624207      39.260033      5.4535
    -8      23.999062      30.398640      39.679108      5.6551
    -8      22.614151      28.787216      40.413803      7.0660
    -8      24.878517      28.749474      39.518841      5.4229
    -8      22.829350      30.125195      40.197235      5.6999

$$$$
