TWB_D (6)
  xed2sdf           3D
 
 29 30  0  0  0  0  0  0  0  0999 V2000
   21.2484   28.5943   40.7493 C   0  0  0  0  0  0  0  0  0  0  0  0
   22.2106   27.6443   40.5655 C   0  0  0  0  0  0  0  0  0  0  0  0
   23.4476   27.9683   40.0318 C   0  0  0  0  0  0  0  0  0  0  0  0
   25.5465   27.2264   39.4036 C   0  0  0  0  0  0  0  0  0  0  0  0
   25.9421   28.5430   39.0098 C   0  0  0  0  0  0  0  0  0  0  0  0
   25.0735   29.5679   39.1199 C   0  0  0  0  0  0  0  0  0  0  0  0
   25.6530   30.9020   38.6957 C   0  0  0  0  0  0  0  0  0  0  0  0
   23.7365   29.2904   39.6689 C   0  0  0  0  0  0  0  0  0  0  0  0
   22.7323   30.2545   39.8650 C   0  0  0  0  0  0  0  0  0  0  0  0
   21.5227   29.9007   40.3950 C   0  0  0  0  0  0  0  0  0  0  0  0
   24.3235   26.9362   39.8958 O   0  0  0  0  0  0  0  0  0  0  0  0
   25.7003   32.7373   36.6503 O   0  5  0  0  0  0  0  0  0  0  0  0
   26.0649   30.2859   36.0527 O   0  5  0  0  0  0  0  0  0  0  0  0
   23.7477   31.0957   36.7198 O   0  0  0  0  0  0  0  0  0  0  0  0
   25.3392   31.2927   36.9174 P   0  0  0  0  0  0  0  0  0  0  0  0
   19.9011   28.2245   41.3369 C   0  0  0  0  0  0  0  0  0  0  0  0
   26.3992   26.3553   39.2657 O   0  0  0  0  0  0  0  0  0  0  0  0
   22.7926   31.7964   39.5348 B   0  0  0  0  0  0  0  0  0  0  0  0
   22.0194   26.6965   40.8209 H   0  0  0  0  0  0  0  0  0  0  0  0
   26.8624   28.7034   38.6536 H   0  0  0  0  0  0  0  0  0  0  0  0
   26.6407   30.8860   38.8514 H   0  0  0  0  0  0  0  0  0  0  0  0
   25.2030   31.6098   39.2400 H   0  0  0  0  0  0  0  0  0  0  0  0
   20.8224   30.6019   40.5289 H   0  0  0  0  0  0  0  0  0  0  0  0
   23.2352   31.8530   37.1393 H   0  0  0  0  0  0  0  0  0  0  0  0
   19.3356   29.0469   41.3974 H   0  0  0  0  0  0  0  0  0  0  0  0
   19.4515   27.5488   40.7526 H   0  0  0  0  0  0  0  0  0  0  0  0
   20.0274   27.8336   42.2487 H   0  0  0  0  0  0  0  0  0  0  0  0
   22.0008   32.3786   39.7195 H   0  0  0  0  0  0  0  0  0  0  0  0
   23.6227   32.1913   39.1407 H   0  0  0  0  0  0  0  0  0  0  0  0
  2  1  2  0
  3  2  1  0
  5  4  1  0
  6  5  2  0
  7  6  1  0
  8  3  2  0
  8  6  1  0
  9  8  1  0
 10  1  1  0
 10  9  2  0
 11  3  1  0
 11  4  1  0
 15  7  1  0
 15 12  1  0
 15 13  1  0
 15 14  1  0
 16  1  1  0
 17  4  2  0
 18  9  1  0
  2 19  1  0
  5 20  1  0
  7 21  1  0
  7 22  1  0
 10 23  1  0
 14 24  1  0
 16 25  1  0
 16 26  1  0
 16 27  1  0
 18 28  1  0
 18 29  1  0
M  CHG  2  12  -1  13  -1
M  END
>  <BioMolTech Lead Finder dG>
-8.143

>  <BioMolTech Lead Finder VSscore>
-15.497

>  <BioMolTech Lead Finder Rank score>
-15.153

>  <BioMolTech Lead Finder LE>
-0.452

>  <BioMolTech Lead Finder Structure Name>
/var/folders/s3/bsl1r71j5vv92phr7p9f9skw0000gn/T/LeadFinder_54624_1/Ligand_1.sdf

>  <BioMolTech Lead Finder SDF id>
0

>  <BioMolTech Lead Finder Pose rank>
0

>  <BioMolTech Lead Finder version>
2104 1, 18 April 2021

>  <LF dG>
-8.143

>  <LF VSscore>
-15.497

>  <LF Rank Score>
-15.153

>  <LF LE>
-0.452

>  <Preferred Pose_cresset>
true

>  <Favorite_cresset>
false

>  <Protein_cresset>
vim2_solv.gromacs

>  <MW_cresset>
265

>  <#Atoms_cresset>
18

>  <SlogP_cresset>
0.5

>  <TPSA_cresset>
92.6

>  <Flexibility_cresset>
4

>  <#RB_cresset>
4

>  <Rof5_cresset>
0

>  <Filename_cresset>
ligand_9.sdf

>  <Confs_cresset>
0

>  <Poses_cresset>
8

>  <Activity (Primary)_cresset>
No Primary Activity Set

>  <_cresset_fieldpoints2>
 2
    -5      26.226540      24.602440      39.622414    -15.3669
    -5      23.075397      29.310432      43.154888     -2.0145
    -5      28.056210      26.082819      38.611046    -14.9657
    -5      26.768204      28.923361      34.906593    -10.3381
    -5      26.488455      34.349297      35.983189     -8.5968
    -5      23.106962      29.417957      36.056683    -12.4620
    -6      20.653996      25.265560      41.682930      2.6601
    -6      24.543175      32.637352      41.098198      4.6856
    -6      28.193443      30.071976      40.077690      3.4849
    -6      19.666508      32.293571      40.543068      3.4485
    -6      22.379185      33.409149      37.741409      9.3515
    -6      19.222450      31.802013      40.890434      3.3831
    -7      23.712206      29.507278      43.130520     -1.9469
    -7      28.340397      29.738211      36.887672     -1.7276
    -7      24.054008      28.208429      36.569382     -2.7461
    -7      24.987595      34.262337      38.512711     -1.6218
    -7      23.655811      34.105835      37.541794     -1.6559
    -7      20.403309      25.024448      41.759235     -1.3748
    -7      24.813946      25.534344      41.831360     -1.5232
    -7      26.114918      29.371170      41.949066     -2.1375
    -8      22.463373      28.963146      40.216743      7.0367
    -8      25.104694      29.680752      39.138344      5.4406
    -8      24.197685      30.328798      39.353027      5.3777
    -8      24.754505      28.819481      39.403984      5.4167

$$$$
