TWB_D (3)
  xed2sdf           3D
 
 27 28  0  0  0  0  0  0  0  0999 V2000
   20.9511   29.2561   40.5907 C   0  0  0  0  0  0  0  0  0  0  0  0
   21.9725   28.3519   40.7043 C   0  0  0  0  0  0  0  0  0  0  0  0
   23.2503   28.6550   40.2576 C   0  0  0  0  0  0  0  0  0  0  0  0
   25.4715   28.0483   40.0219 C   0  0  0  0  0  0  0  0  0  0  0  0
   25.8041   29.3078   39.4209 C   0  0  0  0  0  0  0  0  0  0  0  0
   24.8389   30.2237   39.2176 C   0  0  0  0  0  0  0  0  0  0  0  0
   25.1983   31.5585   38.5985 C   0  0  0  0  0  0  0  0  0  0  0  0
   23.4895   29.9011   39.6807 C   0  0  0  0  0  0  0  0  0  0  0  0
   22.4416   30.8152   39.5775 C   0  0  0  0  0  0  0  0  0  0  0  0
   21.1912   30.4968   40.0250 C   0  0  0  0  0  0  0  0  0  0  0  0
   24.2185   27.7105   40.4116 O   0  0  0  0  0  0  0  0  0  0  0  0
   26.1108   32.6925   36.2731 O   0  5  0  0  0  0  0  0  0  0  0  0
   25.8905   30.1518   36.3450 O   0  5  0  0  0  0  0  0  0  0  0  0
   23.8011   31.6142   36.2403 O   0  0  0  0  0  0  0  0  0  0  0  0
   25.3266   31.4934   36.7592 P   0  0  0  0  0  0  0  0  0  0  0  0
   19.5628   28.9100   41.0898 C   0  0  0  0  0  0  0  0  0  0  0  0
   26.4095   27.2695   40.1599 O   0  0  0  0  0  0  0  0  0  0  0  0
   21.7947   27.4581   41.1162 H   0  0  0  0  0  0  0  0  0  0  0  0
   26.7479   29.5044   39.1549 H   0  0  0  0  0  0  0  0  0  0  0  0
   26.0770   31.8571   38.9708 H   0  0  0  0  0  0  0  0  0  0  0  0
   24.4625   32.1977   38.8218 H   0  0  0  0  0  0  0  0  0  0  0  0
   22.6074   31.7138   39.1716 H   0  0  0  0  0  0  0  0  0  0  0  0
   20.4477   31.1607   39.9439 H   0  0  0  0  0  0  0  0  0  0  0  0
   23.2784   32.2664   36.8001 H   0  0  0  0  0  0  0  0  0  0  0  0
   18.9562   29.6886   40.9304 H   0  0  0  0  0  0  0  0  0  0  0  0
   19.2180   28.1087   40.6007 H   0  0  0  0  0  0  0  0  0  0  0  0
   19.5984   28.7039   42.0677 H   0  0  0  0  0  0  0  0  0  0  0  0
  2  1  2  0
  3  2  1  0
  5  4  1  0
  6  5  2  0
  7  6  1  0
  8  3  2  0
  8  6  1  0
  9  8  1  0
 10  1  1  0
 10  9  2  0
 11  3  1  0
 11  4  1  0
 15  7  1  0
 15 12  1  0
 15 13  1  0
 15 14  1  0
 16  1  1  0
 17  4  2  0
  2 18  1  0
  5 19  1  0
  7 20  1  0
  7 21  1  0
  9 22  1  0
 10 23  1  0
 14 24  1  0
 16 25  1  0
 16 26  1  0
 16 27  1  0
M  CHG  2  12  -1  13  -1
M  END
>  <BioMolTech Lead Finder dG>
-8.116

>  <BioMolTech Lead Finder VSscore>
-15.533

>  <BioMolTech Lead Finder Rank score>
-15.405

>  <BioMolTech Lead Finder LE>
-0.477

>  <BioMolTech Lead Finder Structure Name>
/var/folders/s3/bsl1r71j5vv92phr7p9f9skw0000gn/T/LeadFinder_54625_1/Ligand_1.sdf

>  <BioMolTech Lead Finder SDF id>
0

>  <BioMolTech Lead Finder Pose rank>
0

>  <BioMolTech Lead Finder version>
2104 1, 18 April 2021

>  <LF dG>
-8.116

>  <LF VSscore>
-15.533

>  <LF Rank Score>
-15.405

>  <LF LE>
-0.477

>  <Preferred Pose_cresset>
true

>  <Favorite_cresset>
false

>  <Protein_cresset>
vim2_solv.gromacs

>  <MW_cresset>
253.2

>  <#Atoms_cresset>
17

>  <SlogP_cresset>
1.4

>  <TPSA_cresset>
92.6

>  <Flexibility_cresset>
3

>  <#RB_cresset>
3

>  <Rof5_cresset>
0

>  <Filename_cresset>
ligand_4.sdf

>  <Confs_cresset>
0

>  <Poses_cresset>
10

>  <Activity (Primary)_cresset>
No Primary Activity Set

>  <_cresset_fieldpoints2>
 2
    -5      22.411184      30.472506      43.037460     -1.8433
    -5      26.343578      25.600906      40.827415    -15.3845
    -5      23.230820      30.262054      35.010841    -12.0198
    -5      28.154335      27.082241      39.755928    -15.0332
    -5      26.462391      28.347599      36.056953    -10.6836
    -5      27.286064      33.919731      35.391365     -9.1703
    -6      22.834217      33.466064      38.183239     13.3170
    -6      20.413902      26.124191      42.085022      2.7543
    -6      27.790028      31.286531      40.126942      3.6819
    -6      18.624985      32.099792      40.063675      3.4259
    -7      25.527681      30.767002      42.103043     -2.1414
    -7      22.720827      33.943871      38.160728     -1.8617
    -7      28.436661      30.853970      37.821911     -1.6118
    -7      28.163364      29.705818      37.104221     -1.6118
    -7      20.145733      25.875038      42.148308     -1.3736
    -7      22.890081      29.213470      36.589867     -2.5798
    -7      24.359533      28.222084      36.946289     -2.7681
    -7      23.084309      30.771425      42.999371     -1.9559
    -7      23.951309      25.377079      40.682076     -1.4896
    -8      22.197475      29.605183      40.135048      7.0637
    -8      23.937815      30.835663      39.216553      5.6094
    -8      24.723492      30.382942      39.234940      5.4787

$$$$
